!This file talks about line parameter of the Power system 

New line.1-2 bus1=SourceBus Bus2=2 R1=0.0922  X1=0.0477
New line.2-3 Bus1=2 Bus2=3 R1=0.493 X1=0.2511
New line.3-4 Bus1=3 Bus2=4 R1=0.366 X1=0.1864